[Format]      =  4.0
[Frequency]   =  0
[Precision]   =  1e-008
[MinAngle]    =  30
[Depth]       =  1
[LengthUnits] =  millimeters
[ProblemType] =  planar
[Coordinates] =  cartesian
[ACSolver]    =  0
[PrevSoln]    =  ""
[Comment]     =  "Add comments here."
[PointProps]   = 0
[BdryProps]   = 0
[BlockProps]  = 0
[CircuitProps]  = 0
[NumPoints] = 22
-50	-50	0	0
50	50	0	0
-50	50	0	0
50	-50	0	0
-40	-40	0	0
-40	40	0	0
40	-40	0	0
40	40	0	0
50	15	0	0
50	-15	0	0
40	15	0	0
40	-15	0	0
-60	30	0	0
-60	-30	0	0
-30	30	0	0
-30	-30	0	0
-50.000000000000007	-30.000000000000004	0	0
-40	-30	0	0
-50.000000000000007	30	0	0
-40	30	0	0
200	0	0	0
-200	0	0	0
[NumSegments] = 22
2	18	-1	0	0	0
3	0	-1	0	0	0
2	1	-1	0	0	0
5	7	-1	0	0	0
5	19	-1	0	0	0
4	6	-1	0	0	0
7	10	-1	0	0	0
8	1	-1	0	0	0
11	6	-1	0	0	0
9	3	-1	0	0	0
11	9	-1	0	0	0
10	8	-1	0	0	0
15	14	-1	0	0	0
12	13	-1	0	0	0
16	0	-1	0	0	0
17	4	-1	0	0	0
18	16	-1	0	0	0
19	17	-1	0	0	0
18	12	-1	0	0	0
13	16	-1	0	0	0
17	15	-1	0	0	0
14	19	-1	0	0	0
[NumArcSegments] = 2
21	20	180	1	0	0	0
20	21	180	1	0	0	0
[NumHoles] = 0
[NumBlockLabels] = 0
